@<TRIPOS>MOLECULE
lasom63
   43    44     1     0     0
SMALL
bcc


@<TRIPOS>ATOM
      1 C1          -0.6370     3.0430     1.1590 ca         1 SUB      -0.193000
      2 C2          -0.4500     1.7270     1.5560 ca         1 SUB      -0.070000
      3 C3           0.2720     0.8450     0.7670 ca         1 SUB      -0.189300
      4 C4           0.8260     1.2950    -0.4240 ca         1 SUB      -0.070000
      5 C5           0.6490     2.6160    -0.8230 ca         1 SUB      -0.193000
      6 C6          -0.0910     3.5090    -0.0390 ca         1 SUB       0.183600
      7 C7          -0.1200    -1.5920     0.1510 ce         1 SUB      -0.312400
      8 C8           0.7020    -2.5700    -0.3080 c2         1 SUB       0.111400
      9 N9           2.0080    -2.7030     0.1440 n          1 SUB      -0.441100
     10 C10          2.5630    -1.8200     1.0260 c          1 SUB       0.559400
     11 N11          1.8340    -0.7750     1.5320 n          1 SUB      -0.490900
     12 C12          0.4460    -0.5900     1.2230 c3         1 SUB       0.213200
     13 C13         -1.6010    -1.4760    -0.4290 c          1 SUB       0.666300
     14 C14          0.2590    -3.6140    -1.3060 c3         1 SUB      -0.088900
     15 N15         -0.2960     4.8980    -0.4570 nh         1 SUB      -0.661000
     16 S16          4.0580    -1.9970     1.4520 s          1 SUB      -0.539400
     17 O17         -1.8050    -1.8560    -1.5870 o          1 SUB      -0.495000
     18 H18         -1.2000     3.6780     1.7870 ha         1 SUB       0.137500
     19 H19         -0.8710     1.3910     2.4680 ha         1 SUB       0.138000
     20 H20          1.3860     0.6300    -1.0320 ha         1 SUB       0.138000
     21 H21          1.0810     2.9280    -1.7360 ha         1 SUB       0.137500
     22 H22          2.5620    -3.4540    -0.1990 hn         1 SUB       0.361500
     23 H23          2.2780    -0.1330     2.1460 hn         1 SUB       0.344500
     24 H24         -0.1350    -0.6600     2.1450 h1         1 SUB       0.065700
     25 H25          1.0410    -4.3730    -1.4490 hc         1 SUB       0.072367
     26 H26         -0.6790    -4.0720    -0.9560 hc         1 SUB       0.072367
     27 H27          0.0300    -3.1190    -2.2590 hc         1 SUB       0.072367
     28 C28          0.3430     5.4340    -1.6320 c3         1 SUB       0.188600
     29 H29          0.0450     6.4810    -1.7860 h1         1 SUB       0.039533
     30 H30          0.0650     4.8260    -2.5040 h1         1 SUB       0.039533
     31 H31          1.4330     5.3630    -1.5080 h1         1 SUB       0.039533
     32 C32         -1.1710     5.7820     0.2810 c3         1 SUB       0.188600
     33 H33         -1.2060     6.7730    -0.1930 h1         1 SUB       0.039533
     34 H34         -0.8130     5.8660     1.3160 h1         1 SUB       0.039533
     35 H35         -2.1790     5.3400     0.3120 h1         1 SUB       0.039533
     36 O36         -2.8080    -0.9750     0.2230 os         1 SUB      -0.413900
     37 C37         -2.8170    -0.6520     1.6130 c3         1 SUB       0.132400
     38 C38         -4.1940    -0.0900     2.0000 c3         1 SUB      -0.105100
     39 H17         -2.6150    -1.5510     2.1960 h1         1 SUB       0.045200
     40 H4          -2.0490     0.0940     1.8170 h1         1 SUB       0.045200
     41 H5          -4.2010     0.1570     3.0610 hc         1 SUB       0.050367
     42 H6          -4.9620    -0.8360     1.7950 hc         1 SUB       0.050367
     43 H7          -4.3970     0.8090     1.4170 hc         1 SUB       0.050367
@<TRIPOS>BOND
     1     1     2 ar  
     2     1     6 ar  
     3     1    18 1   
     4     2     3 ar  
     5     2    19 1   
     6     3     4 ar  
     7     3    12 1   
     8     4     5 ar  
     9     4    20 1   
    10     5     6 ar  
    11     5    21 1   
    12     6    15 1   
    13     7     8 2   
    14     7    12 1   
    15     7    13 1   
    16     8     9 1   
    17     8    14 1   
    18     9    10 1   
    19     9    22 1   
    20    10    11 1   
    21    10    16 2   
    22    11    12 1   
    23    11    23 1   
    24    12    24 1   
    25    13    17 2   
    26    13    36 1   
    27    14    25 1   
    28    14    26 1   
    29    14    27 1   
    30    15    28 1   
    31    15    32 1   
    32    28    29 1   
    33    28    30 1   
    34    28    31 1   
    35    32    33 1   
    36    32    34 1   
    37    32    35 1   
    38    36    37 1   
    39    37    38 1   
    40    37    39 1   
    41    37    40 1   
    42    38    41 1   
    43    38    42 1   
    44    38    43 1   
@<TRIPOS>SUBSTRUCTURE
     1 SUB         1 TEMP              0 ****  ****    0 ROOT
